Circuit: * C:\Users\abhin\Desktop\AMRITA\AMFOSS\Kitchen-Hazard-Management-System\Sensors implementation\MQ6-sensor.asc

Direct Newton iteration for .op point succeeded.

Date: Thu Jul 28 09:43:47 2022
Total elapsed time: 0.491 seconds.

tnom = 27
temp = 27
method = modified trap
totiter = 50182
traniter = 50178
tranpoints = 25090
accept = 25090
rejected = 0
matrix size = 5
fillins = 0
solver = Normal
Matrix Compiler1:      10 opcodes  0.0/[0.0]/0.0
Matrix Compiler2:      26 opcodes  0.0/[0.0]/0.0

