Circuit: * C:\Users\abhin\Desktop\AMRITA\AMFOSS\Kitchen-Hazard-Management-System\Sensors implementation\MQ6-sensor.asc

Direct Newton iteration for .op point succeeded.

Date: Fri Jul 29 11:51:10 2022
Total elapsed time: 0.422 seconds.

tnom = 27
temp = 27
method = modified trap
totiter = 50182
traniter = 50178
tranpoints = 25090
accept = 25090
rejected = 0
matrix size = 5
fillins = 0
solver = Normal
Matrix Compiler1: 168 bytes object code size  0.0/0.0/[0.0]
Matrix Compiler2: off  [0.0]/0.1/0.1

